Version 4
SHEET 1 880 680
WIRE 224 -80 16 -80
WIRE 224 -32 224 -80
WIRE 176 32 144 32
WIRE 224 80 224 48
WIRE 304 80 224 80
WIRE 432 80 384 80
WIRE 624 80 432 80
WIRE -128 112 -128 48
WIRE 16 112 16 -80
WIRE 224 112 224 80
WIRE 432 112 432 80
WIRE 624 112 624 80
WIRE 224 144 224 112
WIRE 16 256 16 192
WIRE 224 256 224 176
WIRE 224 256 16 256
WIRE 432 256 432 176
WIRE 432 256 224 256
WIRE 624 256 624 192
WIRE 624 256 432 256
WIRE -128 288 -128 192
WIRE 16 288 16 256
FLAG 176 -16 0
FLAG 16 288 0
FLAG -128 48 SW
FLAG -128 288 0
FLAG 144 32 SW
SYMBOL voltage 16 96 R0
WINDOW 0 -38 10 Left 2
WINDOW 3 -27 98 Left 2
WINDOW 123 0 0 Left 0
WINDOW 39 0 0 Left 0
SYMATTR InstName V1
SYMATTR Value 24
SYMBOL ind 288 96 R270
WINDOW 0 32 56 VTop 2
WINDOW 3 5 56 VBottom 2
SYMATTR InstName L1
SYMATTR Value 150µ
SYMBOL cap 416 112 R0
SYMATTR InstName C1
SYMATTR Value 4.17µ
SYMBOL res 608 96 R0
SYMATTR InstName R1
SYMATTR Value 6
SYMBOL sw 224 -48 R0
SYMATTR InstName S1
SYMATTR Value ideal_sw
SYMBOL diode 240 176 R180
WINDOW 0 24 64 Left 2
WINDOW 3 25 6 Left 2
SYMATTR InstName D1
SYMATTR Value ideal_D
SYMBOL voltage -128 96 R0
WINDOW 3 -408 106 Left 2
WINDOW 123 0 0 Left 0
WINDOW 39 0 0 Left 0
SYMATTR Value PULSE(0 12 0 10n 10n 5u 10u)
SYMATTR InstName V2
TEXT 8 -160 Left 2 !.model ideal_D D(Ron=1m Roff=10Meg)
TEXT 8 -136 Left 2 !.model ideal_sw SW(Ron=1m Roff=1Meg Vt=.5 Vh=-.4)
TEXT 8 -232 Left 2 ;Elisabeth Virginia Putri Harmadianti
TEXT 8 -200 Left 2 ;22/505938/TK/55406
TEXT -160 312 Left 2 !.tran 1m
